"""
 the carbon species are removed by Liming Dai to increase the simulations of NH3/H2
This mechanism is supplementary material to the work of
Authors:Krishna Prasad Shrestha, Charles Lhuillier, Amanda Alves Barbosa, Pierre Brequigny, Francesco Contino, Christine Mounam-Rousselle, Lars Seidel, Fabian Mauss
Title: An experimental and modeling study of ammonia with enriched oxygen content and ammonia/hydrogen laminar flame speed at elevated pressure and temperature
Proc. Combust. Inst. 38, 2020, https://doi.org/10.1016/j.proci.2020.06.197
 Corresponding Authors: Lars seidel, e-mail: lars.seidel@logesoft.com
                        Krishna Prasad Shrestha, e-mail: shrestha@b-tu.de, ORCID: 0000-0001-5672-7354
------------------------------------------------------------------------------------
This mechanism is based on our previous work
Detailed Kinetic Mechanism for the Oxidation of Ammonia Including the Formation and Reduction of Nitrogen Oxides
Energy & Fuels 2018, 32, 10,10202-10217 / https://doi.org/10.1021/acs.energyfuels.8b01056
Improvement has been made in this mechanism mainly targeting NH3 and NH3/H2 flame
Some formating issues has also been fixed
------------------------------------------------------------------------------------
This mechanism is also validated for following fuels and mixtures
 H2, H2/CO, NH3, NH3/H2, H2/N2O, H2/NO2, CO/NO, CO/NO2, CO/N2O, CH4, CH3OH, CH2O
 CH4/NO, CH4/NO2, CH4/N2O, HCN, CH3OH/NO
"""

units(length='cm', time='s', quantity='mol', act_energy='cal/mol')

ideal_gas(name='shrestha2021_noncarbon_chem',
          elements="H O N",
          species="""H2O    N2     H      O      OH     H2     O2     HO2
                     H2O2   N      NO     N2O    NO2    NH     NH2    NH3
                     HNO    HONO   H2NO   NNH    N2H2   N2H3   N2H4   H2NN
                     HNOH   NH2OH  HNO2   NO3    HONO2  HON""",
          reactions='all',
          transport='Mix',
          initial_state=state(temperature=300.0, pressure=OneAtm))

#-------------------------------------------------------------------------------
# Species data
#-------------------------------------------------------------------------------

species(name='H2O',
        atoms='H:2 O:1',
        thermo=(NASA([298.00, 1000.00],
                     [ 4.19863520E+00, -2.03640170E-03,  6.52034160E-06,
                      -5.48792690E-09,  1.77196800E-12, -3.02937260E+04,
                      -8.49009010E-01]),
                NASA([1000.00, 3000.00],
                     [ 2.67703890E+00,  2.97318160E-03, -7.73768890E-07,
                       9.44335140E-11, -4.26899910E-15, -2.98858940E+04,
                       6.88255000E+00])),
        transport=gas_transport(geom='nonlinear',
                                diam=2.6,
                                well_depth=572.0,
                                dipole=1.84,
                                rot_relax=4.0))

species(name='N2',
        atoms='N:2',
        thermo=(NASA([298.00, 1000.00],
                     [ 3.53100528E+00, -1.23660988E-04, -5.02999433E-07,
                       2.43530612E-09, -1.40881235E-12, -1.04697628E+03,
                       2.96747038E+00]),
                NASA([1000.00, 3000.00],
                     [ 2.95257637E+00,  1.39690040E-03, -4.92631603E-07,
                       7.86010195E-11, -4.60755204E-15, -9.23948688E+02,
                       5.87188762E+00])),
        transport=gas_transport(geom='linear',
                                diam=3.62,
                                well_depth=97.5,
                                polar=1.76,
                                rot_relax=4.0))

species(name='H',
        atoms='H:1',
        thermo=(NASA([298.00, 1000.00],
                     [ 2.50000000E+00,  0.00000000E+00,  0.00000000E+00,
                       0.00000000E+00,  0.00000000E+00,  2.54736600E+04,
                      -4.46682850E-01]),
                NASA([1000.00, 3000.00],
                     [ 2.50000000E+00,  0.00000000E+00,  0.00000000E+00,
                       0.00000000E+00,  0.00000000E+00,  2.54736600E+04,
                      -4.46682850E-01])),
        transport=gas_transport(geom='atom',
                                diam=2.05,
                                well_depth=145.0))

species(name='O',
        atoms='O:1',
        thermo=(NASA([298.00, 1000.00],
                     [ 3.16826710E+00, -3.27931884E-03,  6.64306396E-06,
                      -6.12806624E-09,  2.11265971E-12,  2.91222592E+04,
                       2.05193346E+00]),
                NASA([1000.00, 3000.00],
                     [ 2.54363697E+00, -2.73162486E-05, -4.19029520E-09,
                       4.95481845E-12, -4.79553694E-16,  2.92260120E+04,
                       4.92229457E+00])),
        transport=gas_transport(geom='atom',
                                diam=2.75,
                                well_depth=80.0))

species(name='OH',
        atoms='H:1 O:1',
        thermo=(NASA([298.00, 1000.00],
                     [ 3.99198424E+00, -2.40106655E-03,  4.61664033E-06,
                      -3.87916306E-09,  1.36319502E-12,  3.36889836E+03,
                      -1.03998477E-01]),
                NASA([1000.00, 3000.00],
                     [ 2.83853033E+00,  1.10741289E-03, -2.94000209E-07,
                       4.20698729E-11, -2.42289890E-15,  3.69780808E+03,
                       5.84494652E+00])),
        transport=gas_transport(geom='linear',
                                diam=2.75,
                                well_depth=80.0))

species(name='H2',
        atoms='H:2',
        thermo=(NASA([298.00, 1000.00],
                     [ 2.34433112E+00,  7.98052075E-03, -1.94781510E-05,
                       2.01572094E-08, -7.37611761E-12, -9.17935173E+02,
                       6.83010238E-01]),
                NASA([1000.00, 3000.00],
                     [ 2.93286575E+00,  8.26608026E-04, -1.46402364E-07,
                       1.54100414E-11, -6.88804800E-16, -8.13065581E+02,
                      -1.02432865E+00])),
        transport=gas_transport(geom='linear',
                                diam=2.92,
                                well_depth=38.0,
                                polar=0.79,
                                rot_relax=280.0))

species(name='O2',
        atoms='O:2',
        thermo=(NASA([300.00, 1000.00],
                     [ 3.78245636E+00, -2.99673416E-03,  9.84730201E-06,
                      -9.68129509E-09,  3.24372837E-12, -1.06394356E+03,
                       3.65767573E+00]),
                NASA([1000.00, 3000.00],
                     [ 3.66096065E+00,  6.56365811E-04, -1.41149627E-07,
                       2.05797935E-11, -1.29913436E-15, -1.21597718E+03,
                       3.41536279E+00])),
        transport=gas_transport(geom='linear',
                                diam=3.46,
                                well_depth=107.0,
                                polar=1.6,
                                rot_relax=3.8))

species(name='HO2',
        atoms='H:1 O:2',
        thermo=(NASA([298.00, 1000.00],
                     [ 4.30179807E+00, -4.74912097E-03,  2.11582905E-05,
                      -2.42763914E-08,  9.29225225E-12,  2.64018485E+02,
                       3.71666220E+00]),
                NASA([1000.00, 3000.00],
                     [ 4.17228741E+00,  1.88117627E-03, -3.46277286E-07,
                       1.94657549E-11,  1.76256905E-16,  3.10206839E+01,
                       2.95767672E+00])),
        transport=gas_transport(geom='nonlinear',
                                diam=3.46,
                                well_depth=107.0,
                                rot_relax=1.0))

species(name='H2O2',
        atoms='H:2 O:2',
        thermo=(NASA([298.00, 1000.00],
                     [ 4.31515149E+00, -8.47390622E-04,  1.76404323E-05,
                      -2.26762944E-08,  9.08950158E-12, -1.77067437E+04,
                       3.27373319E+00]),
                NASA([1000.00, 3000.00],
                     [ 4.57977305E+00,  4.05326003E-03, -1.29844730E-06,
                       1.98211400E-10, -1.13968792E-14, -1.80071775E+04,
                       6.64970694E-01])),
        transport=gas_transport(geom='nonlinear',
                                diam=3.46,
                                well_depth=107.0,
                                rot_relax=3.8))

species(name='N',
        atoms='N:1',
        thermo=(NASA([300.00, 1000.00],
                     [ 2.50307100E+00, -2.18001800E-05,  5.42052900E-08,
                      -5.64756000E-11,  2.09990400E-14,  5.60989000E+04,
                       4.16756600E+00]),
                NASA([1000.00, 5000.00],
                     [ 2.45026800E+00,  1.06614600E-04, -7.46533700E-08,
                       1.87965200E-11, -1.02598400E-15,  5.61160400E+04,
                       4.44875800E+00])),
        transport=gas_transport(geom='atom',
                                diam=3.298,
                                well_depth=71.4),
        note='120186')

species(name='NO',
        atoms='N:1 O:1',
        thermo=(NASA([300.00, 1000.00],
                     [ 3.37654200E+00,  1.25306300E-03, -3.30275100E-06,
                       5.21781000E-09, -2.44626300E-12,  9.81796100E+03,
                       5.82959000E+00]),
                NASA([1000.00, 5000.00],
                     [ 3.24543500E+00,  1.26913800E-03, -5.01589000E-07,
                       9.16928300E-11, -6.27541900E-15,  9.80084000E+03,
                       6.41729400E+00])),
        transport=gas_transport(geom='linear',
                                diam=3.621,
                                well_depth=97.53,
                                polar=1.76,
                                rot_relax=4.0),
        note='121286')

species(name='N2O',
        atoms='N:2 O:1',
        thermo=(NASA([300.00, 1000.00],
                     [ 2.54305800E+00,  9.49219300E-03, -9.79277500E-06,
                       6.26384500E-09, -1.90182600E-12,  8.76510000E+03,
                       9.51122200E+00]),
                NASA([1000.00, 5000.00],
                     [ 4.71897700E+00,  2.87371400E-03, -1.19749600E-06,
                       2.25055200E-10, -1.57533700E-14,  8.16581100E+03,
                      -1.65725000E+00])),
        transport=gas_transport(geom='linear',
                                diam=3.828,
                                well_depth=232.4,
                                rot_relax=1.0),
        note='121286')

species(name='NO2',
        atoms='N:1 O:2',
        thermo=(NASA([300.00, 1000.00],
                     [ 2.67060000E+00,  7.83850100E-03, -8.06386500E-06,
                       6.16171500E-09, -2.32015000E-12,  2.89629100E+03,
                       1.16120700E+01]),
                NASA([1000.00, 5000.00],
                     [ 4.68285900E+00,  2.46242900E-03, -1.04225900E-06,
                       1.97690200E-10, -1.39171700E-14,  2.26129200E+03,
                       9.88598500E-01])),
        transport=gas_transport(geom='nonlinear',
                                diam=3.5,
                                well_depth=200.0,
                                rot_relax=1.0),
        note='121286')

species(name='NH',
        atoms='H:1 N:1',
        thermo=(NASA([300.00, 1000.00],
                     [ 3.33975800E+00,  1.25300900E-03, -3.49164600E-06,
                       4.21881200E-09, -1.55761800E-12,  4.18504700E+04,
                       2.50718100E+00]),
                NASA([1000.00, 5000.00],
                     [ 2.76024900E+00,  1.37534600E-03, -4.45191400E-07,
                       7.69279200E-11, -5.01759200E-15,  4.20782800E+04,
                       5.85719900E+00])),
        transport=gas_transport(geom='linear',
                                diam=2.65,
                                well_depth=80.0,
                                rot_relax=4.0),
        note='31387')

species(name='NH2',
        atoms='H:2 N:1',
        thermo=(NASA([300.00, 1000.00],
                     [ 3.43249300E+00,  3.29954000E-03, -6.61360000E-06,
                       8.59094700E-09, -3.57204700E-12,  2.17722800E+04,
                       3.09011100E+00]),
                NASA([1000.00, 5000.00],
                     [ 2.96131100E+00,  2.93269900E-03, -9.06360000E-07,
                       1.61725700E-10, -1.20420000E-14,  2.19197700E+04,
                       5.77787800E+00])),
        transport=gas_transport(geom='nonlinear',
                                diam=2.65,
                                well_depth=80.0,
                                polar=2.26,
                                rot_relax=4.0),
        note='121686')

species(name='NH3',
        atoms='H:3 N:1',
        thermo=(NASA([300.00, 1000.00],
                     [ 2.20435200E+00,  1.01147600E-02, -1.46526500E-05,
                       1.44723500E-08, -5.32850900E-12, -6.52548800E+03,
                       8.12713800E+00]),
                NASA([1000.00, 5000.00],
                     [ 2.46190400E+00,  6.05916600E-03, -2.00497700E-06,
                       3.13600300E-10, -1.93831700E-14, -6.49327000E+03,
                       7.47209700E+00])),
        transport=gas_transport(geom='nonlinear',
                                diam=2.92,
                                well_depth=481.0,
                                dipole=1.47,
                                rot_relax=10.0),
        note='121386')

species(name='HNO',
        atoms='H:1 N:1 O:1',
        thermo=(NASA([300.00, 1000.00],
                     [ 2.78440300E+00,  6.60964600E-03, -9.30022300E-06,
                       9.43798000E-09, -3.75314600E-12,  1.09187800E+04,
                       9.03562900E+00]),
                NASA([1000.00, 5000.00],
                     [ 3.61514400E+00,  3.21248600E-03, -1.26033700E-06,
                       2.26729800E-10, -1.53623600E-14,  1.06619100E+04,
                       4.81026400E+00])),
        transport=gas_transport(geom='nonlinear',
                                diam=3.492,
                                well_depth=116.7,
                                rot_relax=1.0),
        note='121286')

species(name='HONO',
        atoms='H:1 N:1 O:2',
        thermo=(NASA([300.00, 1000.00],
                     [ 2.29041300E+00,  1.40992200E-02, -1.36787200E-05,
                       7.49878000E-09, -1.87690500E-12, -1.04319500E+04,
                       1.32807700E+01]),
                NASA([1000.00, 5000.00],
                     [ 5.48689300E+00,  4.21806500E-03, -1.64914300E-06,
                       2.97187700E-10, -2.02114800E-14, -1.12686500E+04,
                      -2.99700200E+00])),
        transport=gas_transport(geom='nonlinear',
                                diam=3.828,
                                well_depth=232.4,
                                rot_relax=1.0),
        note='31787')

species(name='H2NO',
        atoms='H:2 N:1 O:1',
        thermo=(NASA([300.00, 1500.00],
                     [ 2.53059000E+00,  8.59603500E-03, -5.47103000E-06,
                       2.27624900E-09, -4.64807300E-13,  6.86803000E+03,
                       1.12665100E+01]),
                NASA([1500.00, 4000.00],
                     [ 5.67334600E+00,  2.29883700E-03, -1.77444600E-07,
                      -1.10348200E-10,  1.85976200E-14,  5.56932500E+03,
                      -6.15354000E+00])),
        transport=gas_transport(geom='nonlinear',
                                diam=3.492,
                                well_depth=116.7,
                                rot_relax=1.0),
        note='102290')

species(name='NNH',
        atoms='H:1 N:2',
        thermo=(NASA([200.00, 1000.00],
                     [ 4.25474632E+00, -3.45098298E-03,  1.37788699E-05,
                      -1.33263744E-08,  4.41023397E-12,  2.87932080E+04,
                       3.28551762E+00]),
                NASA([1000.00, 6000.00],
                     [ 3.42744423E+00,  3.23295234E-03, -1.17296299E-06,
                       1.90508356E-10, -1.14491506E-14,  2.87676026E+04,
                       6.39209233E+00])),
        transport=gas_transport(geom='nonlinear',
                                diam=3.798,
                                well_depth=71.4,
                                rot_relax=1.0),
        note='T8/11')

species(name='N2H2',
        atoms='H:2 N:2',
        thermo=(NASA([300.00, 1000.00],
                     [ 1.61799900E+00,  1.30631200E-02, -1.71571200E-05,
                       1.60560800E-08, -6.09363900E-12,  2.46752600E+04,
                       1.37946700E+01]),
                NASA([1000.00, 5000.00],
                     [ 3.37118500E+00,  6.03996800E-03, -2.30385400E-06,
                       4.06278900E-10, -2.71314400E-14,  2.41817200E+04,
                       4.98058500E+00])),
        transport=gas_transport(geom='nonlinear',
                                diam=3.798,
                                well_depth=71.4,
                                rot_relax=1.0),
        note='121286')

species(name='N2H3',
        atoms='H:3 N:2',
        thermo=(NASA([200.00, 1000.00],
                     [ 3.42125505E+00,  1.34901590E-03,  2.23459071E-05,
                      -2.99727732E-08,  1.20978970E-11,  2.53056139E+04,
                       7.83176309E+00]),
                NASA([1000.00, 6000.00],
                     [ 4.04483566E+00,  7.31130186E-03, -2.47625799E-06,
                       3.83733021E-10, -2.23107573E-14,  2.48098603E+04,
                       2.88423392E+00])),
        transport=gas_transport(geom='nonlinear',
                                diam=3.9,
                                well_depth=200.0,
                                rot_relax=1.0),
        note='HydrazineA05/05')

species(name='N2H4',
        atoms='H:4 N:2',
        thermo=(NASA([200.00, 1000.00],
                     [ 3.83472149E+00, -6.49129555E-04,  3.76848463E-05,
                      -5.00709182E-08,  2.03362064E-11,  1.00893925E+04,
                       5.75272030E+00]),
                NASA([1000.00, 6000.00],
                     [ 4.93957357E+00,  8.75017187E-03, -2.99399058E-06,
                       4.67278418E-10, -2.73068599E-14,  9.28265548E+03,
                      -2.69439772E+00])),
        transport=gas_transport(geom='nonlinear',
                                diam=4.23,
                                well_depth=205.0,
                                polar=4.26,
                                rot_relax=1.5),
        note='HYDRAZINEL5/90')

species(name='H2NN',
        atoms='H:2 N:2',
        thermo=(NASA([200.00, 1000.00],
                     [ 4.53204001E+00, -7.32418578E-03,  3.00803713E-05,
                      -3.04000551E-08,  1.04700639E-11,  3.49580003E+04,
                       1.51074195E+00]),
                NASA([1000.00, 6000.00],
                     [ 3.05903670E+00,  6.18382347E-03, -2.22171165E-06,
                       3.58539206E-10, -2.14532905E-14,  3.48530149E+04,
                       6.69893515E+00])),
        transport=gas_transport(geom='nonlinear',
                                diam=3.798,
                                well_depth=71.4,
                                rot_relax=1.0),
        note='IsodiazeneT9/11')

species(name='HNOH',
        atoms='H:2 N:1 O:1',
        thermo=(NASA([200.00, 1000.00],
                     [ 3.95608248E+00, -3.02611020E-03,  2.56874396E-05,
                      -3.15645120E-08,  1.24084574E-11,  1.09199790E+04,
                       5.55950983E+00]),
                NASA([1000.00, 6000.00],
                     [ 3.98321933E+00,  4.88846374E-03, -1.65086637E-06,
                       2.55371446E-10, -1.48308561E-14,  1.05780106E+04,
                       3.62582838E+00])),
        transport=gas_transport(geom='nonlinear',
                                diam=3.492,
                                well_depth=116.7,
                                rot_relax=1.0),
        note='trans&EquT11/11')

species(name='NH2OH',
        atoms='H:3 N:1 O:1',
        thermo=(NASA([200.00, 1000.00],
                     [ 3.21016092E+00,  6.19671676E-03,  1.10594948E-05,
                      -1.96668262E-08,  8.82516590E-12, -6.58148481E+03,
                       7.93293571E+00]),
                NASA([1000.00, 6000.00],
                     [ 3.88112502E+00,  8.15708448E-03, -2.82615576E-06,
                       4.37930933E-10, -2.52724604E-14, -6.86018419E+03,
                       3.79156136E+00])),
        transport=gas_transport(geom='nonlinear',
                                diam=3.492,
                                well_depth=116.7,
                                rot_relax=1.0),
        note='ATcT/A')

species(name='HNO2',
        atoms='H:1 N:1 O:2',
        thermo=(NASA([298.15, 1000.00],
                     [ 2.86816457E+00,  4.08036347E-03,  9.55139253E-06,
                      -1.29604691E-08,  4.57373772E-12, -6.42160346E+03,
                       1.07615202E+01]),
                NASA([1000.00, 3000.00],
                     [ 2.71886798E+00,  9.23249468E-03, -5.00922160E-06,
                       1.30155189E-09, -1.30503734E-13, -6.61949139E+03,
                       1.03430537E+01])),
        transport=gas_transport(geom='nonlinear',
                                diam=3.828,
                                well_depth=232.4,
                                rot_relax=1.0))

species(name='NO3',
        atoms='N:1 O:3',
        thermo=(NASA([200.00, 1000.00],
                     [ 2.17359330E+00,  1.04902685E-02,  1.10472669E-05,
                      -2.81561867E-08,  1.36583960E-11,  7.81290905E+03,
                       1.46022090E+01]),
                NASA([1000.00, 6000.00],
                     [ 7.48347702E+00,  2.57772064E-03, -1.00945831E-06,
                       1.72314063E-10, -1.07154008E-14,  6.12990474E+03,
                      -1.41618136E+01])),
        transport=gas_transport(geom='nonlinear',
                                diam=4.175,
                                well_depth=378.4,
                                rot_relax=1.0),
        note='ATcT/A')

species(name='HONO2',
        atoms='H:1 N:1 O:3',
        thermo=(NASA([200.00, 1000.00],
                     [ 1.69329154E+00,  1.90167702E-02, -8.25176697E-06,
                      -6.06113827E-09,  4.65236978E-12, -1.73882411E+04,
                       1.71839655E+01]),
                NASA([1000.00, 6000.00],
                     [ 8.03098942E+00,  4.46958589E-03, -1.72459491E-06,
                       2.91556153E-10, -1.80102702E-14, -1.92821685E+04,
                      -1.62616720E+01])),
        transport=gas_transport(geom='nonlinear',
                                diam=3.828,
                                well_depth=232.4,
                                rot_relax=1.0),
        note='T8/03')

species(name='HON',
        atoms='H:1 N:1 O:1',
        thermo=(NASA([300.00, 1671.00],
                     [ 3.33656431E+00,  2.67682939E-03,  5.61801303E-07,
                      -1.11362279E-09,  2.84076438E-13,  2.95979751E+04,
                       5.96343188E+00]),
                NASA([1671.00, 5000.00],
                     [ 3.78577430E+00,  2.86062728E-03, -1.02423922E-06,
                       1.64463139E-10, -9.77943616E-15,  2.93319701E+04,
                       3.12193293E+00])),
        transport=gas_transport(geom='nonlinear',
                                diam=3.492,
                                well_depth=116.7,
                                rot_relax=1.0),
        note='HFMELIUS93')

#-------------------------------------------------------------------------------
# Reaction data
#-------------------------------------------------------------------------------
# --------------------------H2-O2  MECHANISM-------------------------------------
# R1

# Reaction 1
reaction('O2 + H <=> OH + O', [1.800000e+14, -0.097, 15030.0])
#  Baulch 2005 A/2.065E+14 error (+/-0.1-0.2) 800-3500 K
# R2                                                                            !

# Reaction 2
reaction('O + H2 <=> H + OH', [3.000000e+12, 0.0, 7963.0],
         options='duplicate')
#  Baulch 2005 A/3.817E+12 error (+/-0.2)

# Reaction 3
reaction('O + H2 <=> H + OH', [8.000000e+14, 0.0, 19180.0],
         options='duplicate')
#  Baulch 2005 A/8.792E+14 error (+/-0.2)
# R3                                                                            !

# Reaction 4
reaction('OH + H2 <=> H + H2O', [2.167000e+08, 1.52, 3460.0])
#  Baulch 2005 A/2.167E+08 error (+/-0.1-0.3) 250-2500 K
# R4                                                                            !

# Reaction 5
reaction('OH + OH <=> H2O + O', [4.000000e+04, 2.42, -1928.0])
#  Baulch 2005 A/3.3480E+4 error (+/-0.15) 250-2400 K
# R5                                                                            !

# Reaction 6
three_body_reaction('H + H + M <=> H2 + M', [2.300000e+18, -1.0, 0.0],
                    efficiencies='H2:1.0 H2O:6.4 N2:0.4 O2:0.45')
#  Baulch 2005 M=N2 A/2.300E+18 error (+/-0.5) 200-2500K
# R6                                                                            !

# Reaction 7
three_body_reaction('O + O + M <=> O2 + M', [2.900000e+17, -1.0, 0.0],
                    efficiencies='H2:1.0 H2O:6.4 N2:0.4 O2:0.45')
#  N. Peters 1992 M=N2
# R7! This reaction is not included in Baulch et al. 2005 work.                 !

# Reaction 8
three_body_reaction('O + H + M <=> OH + M', [9.436000e+18, -1.0, 0.0],
                    efficiencies='H2:1.0 H2O:6.4 N2:0.4 O2:0.45')
#  Li 2015 M=N2
# R8                                                                            !

# Reaction 9
three_body_reaction('H + OH + M <=> H2O + M', [4.000000e+22, -2.0, 0.0],
                    efficiencies='H2:1.0 H2O:6.4 N2:0.4 O2:0.45')
#  Baulch 2005 M=N2 A/2.212E+22 error (+/-0.5) 300-3000 K
# R9                                                                            !

# Reaction 10
falloff_reaction('H + O2 (+ M) <=> HO2 (+ M)',
                 kf=[5.590000e+13, 0.2, 0.0],
                 kf0=[3.500000e+19, -1.3, 0.0],
                 efficiencies='H2:2.5 H2O:0.0 H2O2:12.0 O2:0.0',
                 falloff=Troe(A=0.7, T3=1e-30, T1=1e+30, T2=1e+30))
#  Hong 2010
#     !

# Reaction 11
falloff_reaction('H + O2 (+ O2) <=> HO2 (+ O2)',
                 kf=[5.590000e+13, 0.2, 0.0],
                 kf0=[5.690000e+18, -1.1, 0.0],
                 falloff=Troe(A=0.7, T3=1e-30, T1=1e+30, T2=1e+30))
#  Hong 2010

# Reaction 12
falloff_reaction('H + O2 (+ H2O) <=> HO2 (+ H2O)',
                 kf=[5.590000e+13, 0.2, 0.0],
                 kf0=[3.700000e+19, -1.0, 0.0],
                 falloff=Troe(A=0.8, T3=1e-30, T1=1e+30, T2=1e+30))
#  Hong 2010
# R10                                                                           !

# Reaction 13
reaction('H + HO2 <=> H2 + O2', [4.660000e+06, 2.087, -1450.0])
#  Hong 2010, J.V. Michael et al. 2000
# R11                                                                           !

# Reaction 14
reaction('H + HO2 <=> OH + OH', [7.080000e+13, 0.0, 300.0])
#  Burke 2012 cited Mueller et. al.Inc. IJCK 31: 113-125, 1999
# R12                                                                           !

# Reaction 15
reaction('O + HO2 <=> OH + O2', [1.630000e+13, 0.0, -445.2])
#  Baulch 2005 error (+/-0.1;220K -+/-0.5; 1000K)
# R12b                                                                          !

# Reaction 16
three_body_reaction('O + OH + M <=> HO2 + M', [1.600000e+16, 0.0, 0.0],
                    efficiencies='H2:1.0 H2O:6.4 N2:0.4 O2:0.45')
#  Sandiego 2014
# R12c                                                                          !

# Reaction 17
reaction('H2 + O2 <=> OH + OH', [1.700000e+13, 0.0, 47780.0])
#  Dayma 2006 cited Miller, J.A. and Kee, R.J. (1977)
# R13                                                                           !

# Reaction 18
reaction('HO2 + OH <=> H2O + O2', [7.000000e+12, 0.0, -1093.0],
         options='duplicate')
#  Hong 2013

# Reaction 19
reaction('HO2 + OH <=> H2O + O2', [4.500000e+14, 0.0, 10930.0],
         options='duplicate')
#  Hong 2013
# R14                                                                           !

# Reaction 20
reaction('HO2 + HO2 <=> H2O2 + O2', [4.220000e+14, 0.0, 11980.0],
         options='duplicate')
#  Baulch 2005 cited Hippler 1990 error (+/-0.15; 550-800 K)-error (+/-0.4; 1250 K) 550-1250 K

# Reaction 21
reaction('HO2 + HO2 <=> H2O2 + O2', [1.320000e+11, 0.0, -1630.0],
         options='duplicate')
#  Hong 2011
# R15                                                                           !

# Reaction 22
falloff_reaction('H2O2 (+ M) <=> OH + OH (+ M)',
                 kf=[2.000000e+12, 0.9, 48770.0],
                 kf0=[3.660000e+24, -2.3, 48770.0],
                 efficiencies='H2:2.5 H2O:5.1 H2O2:5.2 N2:1.0 O2:0.79',
                 falloff=Troe(A=0.43, T3=1e-30, T1=1e+30))
#  Troe, Combustion and Flame 158 (2011) 594-601.
# R16                                                                           !

# Reaction 23
reaction('H2O2 + H <=> H2O + OH', [1.023000e+13, 0.0, 3586.0])
#  Baulch 2005 A/1.020E+13 error(+/-0.3) 300-1000 K
# R17                                                                           !

# Reaction 24